/*--------------------------------*- C++ -*----------------------------------*\
  =========                 |
  \\      /  F ield         | OpenFOAM: The Open Source CFD Toolbox
   \\    /   O peration     | Website:  https://openfoam.org
    \\  /    A nd           | Version:  8
     \\/     M anipulation  |
\*---------------------------------------------------------------------------*/
FoamFile
{
    version     2.0;
    format      binary;
    class       polyBoundaryMesh;
    location    "constant/polyMesh";
    object      boundary;
}
// * * * * * * * * * * * * * * * * * * * * * * * * * * * * * * * * * * * * * //

5
(
    leftWall
    {
        type            wall;
        inGroups        List<word> 1(wall);
        nFaces          15;
        startFace       2160;
    }
    rightWall
    {
        type            wall;
        inGroups        List<word> 1(wall);
        nFaces          15;
        startFace       2175;
    }
    lowerWall
    {
        type            wall;
        inGroups        List<word> 1(wall);
        nFaces          75;
        startFace       2190;
    }
    atmosphere
    {
        type            patch;
        nFaces          75;
        startFace       2265;
    }
    defaultFaces
    {
        type            empty;
        inGroups        List<word> 1(empty);
        nFaces          2250;
        startFace       2340;
    }
)

// ************************************************************************* //
